/*--------------------------------*- C++ -*----------------------------------*\
| =========                 |                                                 |
| \\      /  F ield         | OpenFOAM: The Open Source CFD Toolbox           |
|  \\    /   O peration     | Version:  dev                                   |
|   \\  /    A nd           | Web:      www.OpenFOAM.org                      |
|    \\/     M anipulation  |                                                 |
|*---------------------------------------------------------------------------*|
|* OpenFOAM for Windows 18.02 (v1)                                           *|
|* Built by CFD Support, www.cfdsupport.com (based on Symscape).             *|
\*---------------------------------------------------------------------------*/
FoamFile
{
    version     2.0;
    format      ascii;
    class       featureEdgeMesh;
    location    "constant/triSurface";
    object      capillary.eMesh;
}
// * * * * * * * * * * * * * * * * * * * * * * * * * * * * * * * * * * * * * //


// points:

370
(
(0.005 -0.00898765 0.0319922)
(0.0096141 0 0.0383717)
(0.000385902 0 0.0383717)
(0.0096141 0 0.000971935)
(0.000385902 0 0.000971935)
(0.005 -0.00898765 0.00595187)
(0.00950817 0 0.000971935)
(0.00882633 0 0.000915073)
(0.00816346 0 0.000741891)
(0.00758973 1.41043e-015 0.000470823)
(0.00718336 1.45128e-015 0.000170474)
(0.00700327 4.93827e-016 -1.45255e-005)
(0.00685391 0 -0.000212553)
(0.00654649 0 -0.000592788)
(0.00616268 0 -0.000895729)
(0.00572144 0 -0.00110641)
(0.00524455 0 -0.00121443)
(0.00475559 0 -0.00121445)
(0.0042787 0 -0.00110646)
(0.00299671 1.14397e-015 -1.46634e-005)
(0.0028166 3.36797e-015 0.000170378)
(0.00383744 0 -0.000895807)
(0.00314505 0 -0.000213394)
(0.00241016 3.2685e-015 0.000470792)
(0.00345361 0 -0.000592892)
(0.00183648 0 0.000741871)
(0.00117364 -1.77636e-018 0.00091507)
(0.000491831 -6.03961e-017 0.000971935)
(0.00276073 -0.016064 0.000971935)
(0.00277628 -0.016064 0.00070849)
(0.00282272 -0.016064 0.000448704)
(0.00289939 -0.016064 0.000196185)
(0.00300525 -0.016064 -4.55592e-005)
(0.00313881 -0.016064 -0.000273171)
(0.00329822 -0.016064 -0.00048349)
(0.00348126 -0.016064 -0.000673594)
(0.0036854 -0.016064 -0.000840842)
(0.0039078 -0.016064 -0.000982913)
(0.00414537 -0.016064 -0.00109783)
(0.00439481 -0.016064 -0.001184)
(0.00465265 -0.016064 -0.00124023)
(0.00491532 -0.016064 -0.00126573)
(0.00517916 -0.016064 -0.00126016)
(0.00544052 -0.016064 -0.00122358)
(0.00569576 -0.016064 -0.0011565)
(0.00594133 -0.016064 -0.00105987)
(0.00617383 -0.016064 -0.000935011)
(0.00639003 -0.016064 -0.000783669)
(0.00658692 -0.016064 -0.000607943)
(0.00676177 -0.016064 -0.000410274)
(0.00690389 -0.016064 -0.00020685)
(0.00702263 -0.016064 1.10514e-005)
(0.00711653 -0.016064 0.000240753)
(0.00718444 -0.016064 0.000479434)
(0.00722552 -0.016064 0.000724163)
(0.00723927 -0.016064 0.000971935)
(0.00722294 -0.016064 0.00124185)
(0.0071742 -0.016064 0.00150783)
(0.00709375 -0.016064 0.00176599)
(0.00698277 -0.016064 0.00201258)
(0.00684288 -0.016064 0.00224399)
(0.00667612 -0.016064 0.00245685)
(0.00648491 -0.016064 0.00264805)
(0.00627205 -0.016064 0.00281482)
(0.00604064 -0.016064 0.00295471)
(0.00579406 -0.016064 0.00306569)
(0.00553589 -0.016064 0.00314614)
(0.00526991 -0.016064 0.00319488)
(0.005 -0.016064 0.00321121)
(0.00473009 -0.016064 0.00319488)
(0.00446411 -0.016064 0.00314614)
(0.00420594 -0.016064 0.00306569)
(0.00395936 -0.016064 0.00295471)
(0.00372795 -0.016064 0.00281482)
(0.00351509 -0.016064 0.00264805)
(0.00332388 -0.016064 0.00245685)
(0.00315712 -0.016064 0.00224399)
(0.00301722 -0.016064 0.00201258)
(0.00290625 -0.016064 0.00176599)
(0.0028258 -0.016064 0.00150783)
(0.00277706 -0.016064 0.00124185)
(0.0055936 -0.016064 0.0339807)
(0.0044064 -0.016064 0.0339807)
(0.00391114 -0.016064 0.0335857)
(0.0038984 -0.016064 0.0334727)
(0.00394871 -0.016064 0.0336931)
(0.00400923 -0.016064 0.0337894)
(0.00408967 -0.016064 0.0338698)
(0.00418599 -0.016064 0.0339304)
(0.00429336 -0.016064 0.0339679)
(0.0061016 -0.016064 0.0334727)
(0.00608886 -0.016064 0.0335857)
(0.00605129 -0.016064 0.0336931)
(0.00599077 -0.016064 0.0337894)
(0.00591033 -0.016064 0.0338698)
(0.00581401 -0.016064 0.0339304)
(0.00570664 -0.016064 0.0339679)
(0.0038984 -0.016064 0.00447144)
(0.0061016 -0.016064 0.00447144)
(0.0044064 -0.016064 0.00396344)
(0.0055936 -0.016064 0.00396344)
(0.00608886 -0.016064 0.0043584)
(0.00605129 -0.016064 0.00425102)
(0.00599077 -0.016064 0.0041547)
(0.00591033 -0.016064 0.00407427)
(0.00581401 -0.016064 0.00401374)
(0.00570664 -0.016064 0.00397617)
(0.00391114 -0.016064 0.0043584)
(0.00394871 -0.016064 0.00425102)
(0.00400923 -0.016064 0.0041547)
(0.00408967 -0.016064 0.00407427)
(0.00418599 -0.016064 0.00401374)
(0.00429336 -0.016064 0.00397617)
(0.00738222 0 0.0338095)
(0.00729693 0 0.0338876)
(0.0074465 0 0.0337133)
(0.00719506 0 0.0339436)
(0.00748645 0 0.0336041)
(0.00710127 0 0.0339713)
(0.0075 0 0.0334875)
(0.00700299 0 0.0339807)
(0.00299701 0 0.0339807)
(0.0028795 0 0.0339672)
(0.00276945 0 0.0339276)
(0.00267256 0 0.0338638)
(0.00259383 0 0.0337792)
(0.00253735 0 0.0336781)
(0.00250942 0 0.033585)
(0.0025 0 0.0334875)
(0.0075 0 0.00445657)
(0.00746265 0 0.004266)
(0.00749058 0 0.00435905)
(0.00740617 0 0.00416492)
(0.00723055 0 0.00401652)
(0.00732744 0 0.0040803)
(0.00700299 0 0.00396344)
(0.0071205 0 0.00397688)
(0.00612279 4.16153e-010 0.00196664)
(0.00585211 4.16153e-010 0.00220644)
(0.00632821 4.16153e-010 0.00166903)
(0.00553192 4.16153e-010 0.00237449)
(0.00645644 4.16153e-010 0.00133092)
(0.00518081 4.16153e-010 0.00246103)
(0.00650003 1.06581e-017 0.000971935)
(0.00645644 4.16153e-010 0.000612955)
(0.00299701 0 0.00396344)
(0.00481919 4.16153e-010 0.00246103)
(0.00446808 4.16153e-010 0.00237449)
(0.00632821 4.16153e-010 0.000274837)
(0.00414789 4.16153e-010 0.00220644)
(0.00612279 4.16153e-010 -2.27687e-005)
(0.00289873 0 0.00397279)
(0.00387721 4.16153e-010 0.00196664)
(0.00585211 4.16153e-010 -0.000262565)
(0.00280494 0 0.0040005)
(0.00367179 4.16153e-010 0.00166903)
(0.00553192 4.16153e-010 -0.000430617)
(0.00518081 4.16153e-010 -0.000517158)
(0.00481919 4.16153e-010 -0.000517158)
(0.00446808 4.16153e-010 -0.000430617)
(0.00349997 4.16153e-010 0.000971935)
(0.00354356 4.16153e-010 0.000612955)
(0.00367179 4.16153e-010 0.000274837)
(0.00414789 4.16153e-010 -0.000262565)
(0.00387721 4.16153e-010 -2.27687e-005)
(0.00354356 4.16153e-010 0.00133092)
(0.00261778 0 0.00413465)
(0.00270307 0 0.00405654)
(0.0025535 0 0.00423078)
(0.0025 0 0.00445657)
(0.00251355 0 0.00433997)
(0.0029807 -0.015937 0.000971935)
(0.00299254 -0.015937 0.000753611)
(0.00302791 -0.015937 0.000537846)
(0.0030864 -0.015937 0.00032717)
(0.00316733 -0.015937 0.000124053)
(0.00326975 -0.015937 -6.91225e-005)
(0.00339245 -0.015937 -0.000250093)
(0.003534 -0.015937 -0.000416736)
(0.00369273 -0.015937 -0.000567098)
(0.00386679 -0.015937 -0.000699417)
(0.00405414 -0.015937 -0.00081214)
(0.00425258 -0.015937 -0.000903947)
(0.00445978 -0.015937 -0.000973761)
(0.00467331 -0.015937 -0.00102076)
(0.00489068 -0.015937 -0.0010444)
(0.00510932 -0.015937 -0.0010444)
(0.00532669 -0.015937 -0.00102076)
(0.00554022 -0.015937 -0.000973761)
(0.00574742 -0.015937 -0.000903947)
(0.00594586 -0.015937 -0.00081214)
(0.0061332 -0.015937 -0.000699417)
(0.00630727 -0.015937 -0.000567098)
(0.006466 -0.015937 -0.000416736)
(0.00660755 -0.015937 -0.000250093)
(0.00673025 -0.015937 -6.91225e-005)
(0.00683267 -0.015937 0.000124053)
(0.0069136 -0.015937 0.00032717)
(0.00697209 -0.015937 0.000537846)
(0.00700746 -0.015937 0.000753611)
(0.0070193 -0.015937 0.000971935)
(0.00700458 -0.015937 0.00121534)
(0.00696062 -0.015937 0.00145519)
(0.00688808 -0.015937 0.00168799)
(0.006788 -0.015937 0.00191035)
(0.00666185 -0.015937 0.00211903)
(0.00651147 -0.015937 0.00231098)
(0.00633904 -0.015937 0.0024834)
(0.00614709 -0.015937 0.00263379)
(0.00593842 -0.015937 0.00275994)
(0.00571605 -0.015937 0.00286001)
(0.00548325 -0.015937 0.00293256)
(0.0052434 -0.015937 0.00297651)
(0.005 -0.015937 0.00299124)
(0.0047566 -0.015937 0.00297651)
(0.00451675 -0.015937 0.00293256)
(0.00428395 -0.015937 0.00286001)
(0.00406158 -0.015937 0.00275994)
(0.00385291 -0.015937 0.00263379)
(0.00366096 -0.015937 0.0024834)
(0.00348853 -0.015937 0.00231098)
(0.00333815 -0.015937 0.00211903)
(0.003212 -0.015937 0.00191035)
(0.00311192 -0.015937 0.00168799)
(0.00303938 -0.015937 0.00145519)
(0.00299542 -0.015937 0.00121534)
(0.0057574 -0.012508 0.00179469)
(0.00588249 -0.012508 0.00165881)
(0.00561165 -0.012508 0.00190814)
(0.00598351 -0.012508 0.00150419)
(0.00544921 -0.012508 0.00199604)
(0.0060577 -0.012508 0.00133505)
(0.00527453 -0.012508 0.00205601)
(0.00610304 -0.012508 0.001156)
(0.00509235 -0.012508 0.00208641)
(0.0061183 -0.012508 0.000971935)
(0.00490765 -0.012508 0.00208641)
(0.00610304 -0.012508 0.00078787)
(0.00472547 -0.012508 0.00205601)
(0.0060577 -0.012508 0.000608825)
(0.00455079 -0.012508 0.00199604)
(0.00598351 -0.012508 0.000439685)
(0.00438835 -0.012508 0.00190814)
(0.00588249 -0.012508 0.000285063)
(0.0042426 -0.012508 0.00179469)
(0.0057574 -0.012508 0.000149178)
(0.00411751 -0.012508 0.00165881)
(0.00561165 -0.012508 3.57351e-005)
(0.00401649 -0.012508 0.00150419)
(0.00544921 -0.012508 -5.21707e-005)
(0.00527453 -0.012508 -0.000112142)
(0.0039423 -0.012508 0.00133505)
(0.00389696 -0.012508 0.001156)
(0.00509235 -0.012508 -0.000142542)
(0.0038817 -0.012508 0.000971935)
(0.00490765 -0.012508 -0.000142542)
(0.00389696 -0.012508 0.00078787)
(0.00472547 -0.012508 -0.000112142)
(0.0039423 -0.012508 0.000608825)
(0.00455079 -0.012508 -5.21707e-005)
(0.00401649 -0.012508 0.000439685)
(0.00438835 -0.012508 3.57351e-005)
(0.00411751 -0.012508 0.000285063)
(0.0042426 -0.012508 0.000149178)
(0.00475015 -0.00900062 0.00638613)
(0.00475 -0.009 0.00640764)
(0.00476692 -0.0090015 0.00625776)
(0.00480821 -0.00899667 0.00614891)
(0.00486642 -0.00899168 0.00606148)
(0.00492792 -0.00898868 0.00600056)
(0.00525 -0.009 0.00640764)
(0.00524984 -0.00900062 0.00638613)
(0.00524187 -0.00900235 0.00629913)
(0.00521993 -0.00899993 0.00621414)
(0.00518404 -0.00899587 0.00613456)
(0.00513442 -0.00899173 0.00606249)
(0.00507261 -0.00898869 0.00600099)
(0.00524984 -0.00900062 0.031558)
(0.00525 -0.009 0.0315365)
(0.00523358 -0.00900156 0.0316844)
(0.00519356 -0.00899686 0.0317918)
(0.00513709 -0.00899192 0.0318784)
(0.00507421 -0.00898875 0.0319418)
(0.00475 -0.009 0.0315365)
(0.00475015 -0.00900062 0.031558)
(0.00475813 -0.00900235 0.031645)
(0.00478006 -0.00899993 0.03173)
(0.00481596 -0.00899587 0.0318095)
(0.00486558 -0.00899173 0.0318816)
(0.00492739 -0.00898869 0.0319431)
(0.00299254 -0.012508 0.000753611)
(0.0029807 -0.012508 0.000971935)
(0.00302791 -0.012508 0.000537846)
(0.0030864 -0.012508 0.00032717)
(0.00316733 -0.012508 0.000124053)
(0.00326975 -0.012508 -6.91225e-005)
(0.00339245 -0.012508 -0.000250093)
(0.003534 -0.012508 -0.000416736)
(0.00369273 -0.012508 -0.000567098)
(0.00386679 -0.012508 -0.000699417)
(0.00405414 -0.012508 -0.00081214)
(0.00425258 -0.012508 -0.000903947)
(0.00445978 -0.012508 -0.000973761)
(0.00467331 -0.012508 -0.00102076)
(0.00489068 -0.012508 -0.0010444)
(0.00510932 -0.012508 -0.0010444)
(0.00532669 -0.012508 -0.00102076)
(0.00554022 -0.012508 -0.000973761)
(0.00574742 -0.012508 -0.000903947)
(0.00594586 -0.012508 -0.00081214)
(0.0061332 -0.012508 -0.000699417)
(0.00630727 -0.012508 -0.000567098)
(0.006466 -0.012508 -0.000416736)
(0.00660755 -0.012508 -0.000250093)
(0.00673025 -0.012508 -6.91225e-005)
(0.00683267 -0.012508 0.000124053)
(0.0069136 -0.012508 0.00032717)
(0.00697209 -0.012508 0.000537846)
(0.00700746 -0.012508 0.000753611)
(0.0070193 -0.012508 0.000971935)
(0.00700338 -0.012508 0.00122502)
(0.00695586 -0.012508 0.00147411)
(0.0068775 -0.012508 0.00171529)
(0.00676953 -0.012508 0.00194474)
(0.00663365 -0.012508 0.00215885)
(0.00647201 -0.012508 0.00235424)
(0.00628715 -0.012508 0.00252783)
(0.00608199 -0.012508 0.00267689)
(0.00585978 -0.012508 0.00279905)
(0.005624 -0.012508 0.0028924)
(0.00537838 -0.012508 0.00295547)
(0.00512679 -0.012508 0.00298725)
(0.00487321 -0.012508 0.00298725)
(0.00462162 -0.012508 0.00295547)
(0.004376 -0.012508 0.0028924)
(0.00414022 -0.012508 0.00279905)
(0.003918 -0.012508 0.00267689)
(0.00371285 -0.012508 0.00252783)
(0.00352799 -0.012508 0.00235424)
(0.00336635 -0.012508 0.00215885)
(0.00323047 -0.012508 0.00194474)
(0.0031225 -0.012508 0.00171529)
(0.00304414 -0.012508 0.00147411)
(0.00299662 -0.012508 0.00122502)
(0.0055936 -0.012 0.00396344)
(0.00565014 -0.0119951 0.00396659)
(0.0044064 -0.012 0.00396344)
(0.00434986 -0.0119951 0.00396659)
(0.00398997 -0.0119787 0.00418053)
(0.00405743 -0.0119733 0.00410229)
(0.005 -0.0093324 0.00569199)
(0.00413941 -0.0119731 0.00403927)
(0.00423229 -0.0119792 0.00399422)
(0.00429028 -0.0119859 0.0039769)
(0.00594338 -0.0119733 0.00410306)
(0.00600779 -0.0119784 0.00417736)
(0.00586561 -0.0119729 0.00404243)
(0.00576764 -0.0119792 0.00399422)
(0.00599719 -0.0119772 0.0337812)
(0.00592096 -0.0119726 0.0338611)
(0.00582897 -0.0119745 0.0339228)
(0.00574197 -0.0119819 0.0339585)
(0.00565014 -0.0119951 0.0339775)
(0.0044064 -0.012 0.0339807)
(0.00434986 -0.0119951 0.0339775)
(0.0055936 -0.012 0.0339807)
(0.0040553 -0.0119734 0.0338398)
(0.00399084 -0.0119786 0.0337648)
(0.0041333 -0.0119729 0.033901)
(0.00423172 -0.0119791 0.0339497)
)


// edges:

366
(
(113 114)
(115 113)
(114 116)
(117 115)
(116 118)
(119 117)
(118 120)
(120 121)
(121 122)
(122 123)
(123 124)
(124 125)
(125 126)
(126 127)
(127 128)
(129 119)
(130 131)
(131 129)
(132 130)
(133 134)
(134 132)
(135 136)
(137 138)
(139 137)
(136 133)
(138 140)
(141 139)
(140 142)
(143 141)
(144 143)
(145 135)
(142 146)
(146 147)
(148 144)
(147 149)
(150 148)
(151 145)
(149 152)
(153 150)
(154 151)
(152 155)
(156 153)
(157 156)
(158 157)
(159 158)
(160 161)
(161 162)
(163 159)
(162 164)
(165 160)
(164 163)
(155 165)
(166 167)
(167 154)
(168 166)
(169 170)
(170 168)
(128 169)
(171 172)
(172 173)
(173 174)
(174 175)
(175 176)
(176 177)
(177 178)
(178 179)
(179 180)
(180 181)
(181 182)
(182 183)
(183 184)
(184 185)
(185 186)
(186 187)
(187 188)
(188 189)
(189 190)
(190 191)
(191 192)
(192 193)
(193 194)
(194 195)
(195 196)
(196 197)
(197 198)
(198 199)
(199 200)
(200 201)
(201 202)
(202 203)
(203 204)
(204 205)
(205 206)
(206 207)
(207 208)
(208 209)
(209 210)
(210 211)
(211 212)
(212 213)
(213 214)
(214 215)
(215 216)
(216 217)
(217 218)
(218 219)
(219 220)
(220 221)
(221 222)
(222 223)
(223 224)
(224 225)
(225 171)
(226 227)
(228 226)
(227 229)
(230 228)
(229 231)
(232 230)
(231 233)
(234 232)
(233 235)
(236 234)
(235 237)
(238 236)
(237 239)
(240 238)
(239 241)
(242 240)
(241 243)
(244 242)
(243 245)
(246 244)
(245 247)
(248 246)
(247 249)
(249 250)
(251 248)
(252 251)
(250 253)
(254 252)
(253 255)
(256 254)
(255 257)
(258 256)
(257 259)
(260 258)
(259 261)
(262 260)
(261 263)
(263 262)
(264 265)
(266 264)
(267 266)
(268 267)
(269 268)
(5 269)
(270 271)
(271 272)
(272 273)
(273 274)
(274 275)
(275 276)
(276 5)
(277 278)
(279 277)
(280 279)
(281 280)
(282 281)
(0 282)
(283 284)
(284 285)
(285 286)
(286 287)
(287 288)
(288 289)
(289 0)
(290 291)
(292 290)
(293 292)
(294 293)
(295 294)
(296 295)
(297 296)
(298 297)
(299 298)
(300 299)
(301 300)
(302 301)
(303 302)
(304 303)
(305 304)
(306 305)
(307 306)
(308 307)
(309 308)
(310 309)
(311 310)
(312 311)
(313 312)
(314 313)
(315 314)
(316 315)
(317 316)
(318 317)
(319 318)
(320 319)
(321 320)
(322 321)
(323 322)
(324 323)
(325 324)
(326 325)
(327 326)
(328 327)
(329 328)
(330 329)
(331 330)
(332 331)
(333 332)
(334 333)
(335 334)
(336 335)
(337 336)
(338 337)
(339 338)
(340 339)
(341 340)
(342 341)
(343 342)
(291 343)
(344 345)
(346 344)
(347 346)
(348 349)
(350 5)
(349 351)
(351 352)
(352 353)
(353 347)
(354 355)
(356 354)
(357 356)
(345 357)
(358 359)
(359 360)
(360 361)
(361 362)
(363 364)
(365 363)
(362 365)
(366 367)
(368 366)
(369 368)
(364 369)
(2 1)
(3 6)
(6 7)
(7 8)
(8 9)
(9 10)
(10 11)
(11 12)
(12 13)
(13 14)
(14 15)
(15 16)
(16 17)
(17 18)
(19 20)
(18 21)
(22 19)
(20 23)
(21 24)
(24 22)
(23 25)
(25 26)
(26 27)
(27 4)
(1 3)
(4 2)
(28 29)
(29 30)
(30 31)
(31 32)
(32 33)
(33 34)
(34 35)
(35 36)
(36 37)
(37 38)
(38 39)
(39 40)
(40 41)
(41 42)
(42 43)
(43 44)
(44 45)
(45 46)
(46 47)
(47 48)
(48 49)
(49 50)
(50 51)
(51 52)
(52 53)
(53 54)
(54 55)
(55 56)
(56 57)
(57 58)
(58 59)
(59 60)
(60 61)
(61 62)
(62 63)
(63 64)
(64 65)
(65 66)
(66 67)
(67 68)
(68 69)
(69 70)
(70 71)
(71 72)
(72 73)
(73 74)
(74 75)
(75 76)
(76 77)
(77 78)
(78 79)
(79 80)
(80 28)
(81 82)
(83 84)
(85 83)
(86 85)
(87 86)
(88 87)
(89 88)
(82 89)
(90 91)
(91 92)
(92 93)
(93 94)
(94 95)
(95 96)
(96 81)
(84 97)
(98 90)
(99 100)
(101 98)
(102 101)
(103 102)
(104 103)
(105 104)
(106 105)
(100 106)
(97 107)
(107 108)
(108 109)
(109 110)
(110 111)
(111 112)
(112 99)
)

// * * * * * * * * * * * * * * * * * * * * * * * * * * * * * * * * * * * * * //


// ************************************************************************* //
