/*--------------------------------*- C++ -*----------------------------------*\
| =========                 |                                                 |
| \\      /  F ield         | OpenFOAM: The Open Source CFD Toolbox           |
|  \\    /   O peration     | Version:  dev                                   |
|   \\  /    A nd           | Web:      www.OpenFOAM.org                      |
|    \\/     M anipulation  |                                                 |
|*---------------------------------------------------------------------------*|
|* OpenFOAM for Windows 18.02 (v1)                                           *|
|* Built by CFD Support, www.cfdsupport.com (based on Symscape).             *|
\*---------------------------------------------------------------------------*/
FoamFile
{
    version     2.0;
    format      ascii;
    class       featureEdgeMesh;
    location    "constant/triSurface";
    object      inlet_1.eMesh;
}
// * * * * * * * * * * * * * * * * * * * * * * * * * * * * * * * * * * * * * //


// points:

53
(
(0.00698277 -0.016064 0.00201258)
(0.00684288 -0.016064 0.00224399)
(0.00709375 -0.016064 0.00176599)
(0.00722294 -0.016064 0.00124185)
(0.0071742 -0.016064 0.00150783)
(0.00569576 -0.016064 -0.0011565)
(0.00594133 -0.016064 -0.00105987)
(0.00473009 -0.016064 0.00319488)
(0.00446411 -0.016064 0.00314614)
(0.005 -0.016064 0.00321121)
(0.00676177 -0.016064 -0.000410274)
(0.00690389 -0.016064 -0.00020685)
(0.00702263 -0.016064 1.10514e-005)
(0.00711653 -0.016064 0.000240753)
(0.00526991 -0.016064 0.00319488)
(0.00553589 -0.016064 0.00314614)
(0.0028258 -0.016064 0.00150783)
(0.00277706 -0.016064 0.00124185)
(0.00290625 -0.016064 0.00176599)
(0.00579406 -0.016064 0.00306569)
(0.00604064 -0.016064 0.00295471)
(0.00627205 -0.016064 0.00281482)
(0.00648491 -0.016064 0.00264805)
(0.00667612 -0.016064 0.00245685)
(0.00617383 -0.016064 -0.000935011)
(0.00639003 -0.016064 -0.000783669)
(0.00658692 -0.016064 -0.000607943)
(0.00718444 -0.016064 0.000479434)
(0.00722552 -0.016064 0.000724163)
(0.00276073 -0.016064 0.000971935)
(0.00301722 -0.016064 0.00201258)
(0.00315712 -0.016064 0.00224399)
(0.00332388 -0.016064 0.00245685)
(0.00723927 -0.016064 0.000971935)
(0.00282272 -0.016064 0.000448704)
(0.00289939 -0.016064 0.000196185)
(0.00300525 -0.016064 -4.55592e-005)
(0.00277628 -0.016064 0.00070849)
(0.00313881 -0.016064 -0.000273171)
(0.00329822 -0.016064 -0.00048349)
(0.00348126 -0.016064 -0.000673594)
(0.0036854 -0.016064 -0.000840842)
(0.0039078 -0.016064 -0.000982913)
(0.00414537 -0.016064 -0.00109783)
(0.00439481 -0.016064 -0.001184)
(0.00465265 -0.016064 -0.00124023)
(0.00491532 -0.016064 -0.00126573)
(0.00517916 -0.016064 -0.00126016)
(0.00544052 -0.016064 -0.00122358)
(0.00351509 -0.016064 0.00264805)
(0.00372795 -0.016064 0.00281482)
(0.00395936 -0.016064 0.00295471)
(0.00420594 -0.016064 0.00306569)
)


// edges:

53
(
(0 1)
(2 0)
(3 4)
(4 2)
(5 6)
(7 8)
(9 7)
(10 11)
(11 12)
(12 13)
(14 9)
(15 14)
(16 17)
(18 16)
(19 15)
(20 19)
(21 20)
(22 21)
(23 22)
(1 23)
(6 24)
(24 25)
(25 26)
(13 27)
(27 28)
(17 29)
(30 18)
(31 30)
(32 31)
(33 3)
(28 33)
(34 35)
(35 36)
(29 37)
(37 34)
(36 38)
(38 39)
(39 40)
(40 41)
(41 42)
(42 43)
(43 44)
(44 45)
(45 46)
(46 47)
(47 48)
(49 32)
(48 5)
(50 49)
(51 50)
(52 51)
(8 52)
(26 10)
)

// * * * * * * * * * * * * * * * * * * * * * * * * * * * * * * * * * * * * * //


// ************************************************************************* //
